(PID.TID 0000.0001) ** WARNING ** S.Edge of facet #  1 disconnected (facet_link=  0.00)
(PID.TID 0000.0001) ** WARNING ** S.Edge of facet #  2 disconnected (facet_link=  0.00)
(PID.TID 0000.0001) ** WARNING ** E.Edge of facet #  4 disconnected (facet_link=  0.00)
(PID.TID 0000.0001) ** WARNING ** E.Edge of facet #  5 disconnected (facet_link=  0.00)
(PID.TID 0000.0001) *** ERROR *** W2_SET_MAP_TILES: Domain Total # of tiles =   468 does
(PID.TID 0000.0001) *** ERROR *** W2_SET_MAP_TILES:  not match (SIZE.h+blankList)=   465
